results/2026-02-12/bilevel_comparisons_single_period/solution_bus_motivation_b_proportional.csv
bus_id,vm_avg,z_voltage
1,1.03,0.9778376727581902
2,1.0300000116392534,0.9777425540670481
3,1.0314350579943172,0.9999999940966172
4,1.0295116255986867,0.9774237988708987
5,1.0314318321080425,0.9999999922330008
6,1.0500000052484442,1.000000004815281
7,1.0319637429548105,0.9999999921527171
8,1.0343951571316572,0.9999999921404484
9,1.0343951466841015,0.9828109176126758
10,1.0343951559773241,0.9828109255137246
11,1.030003023137908,0.9777459882733899
12,1.0314321080629847,0.9824153262770405
13,1.0336167702766612,0.9999999956257909
14,1.031967041969813,0.9999999913219059
15,1.031432108063083,0.9823901273040881
16,1.0343951514041974,0.9828109199777888
17,1.0343951520111718,0.98281092066732
